************************************************************************
* auCdl Netlist:
*
* Library Name:  SMIC_MEMORY
* Top Cell Name: S55NLLGSPH_X512Y16D32
* Version:  V1.1
* View Name:     schematic
* Netlisted on:  Wed Feb 15 21:09:21 CST 2023
************************************************************************
*.BIPOLAR
*.RESI = 2000
*.RESVAL
*.CAPVAL
*.DIOPERI
*.DIOAREA
*.EQUATION
*.SCALE METER
*.MEGA
.PARAM


************************************************************************
* Library Name:  SMIC_MEMORY
* Cell Name:    S55NLLGSPH_X512Y16D32_BLSTRAP1
* View Name:    schematic
************************************************************************

.SUBCKT S55NLLGSPH_X512Y16D32_BLSTRAP1 BL VDD VSS
MN1 BL VSS NET21 VSS STNPGHVT W=85.000N L=75.00N M=1
MN0 NET18 VSS VSS VSS STNPDHVT W=135.000N L=65.000N M=1
MP0 NET26 VSS VDD VDD STPLHVT W=85.000N L=65.000N M=1
.ENDS

************************************************************************
* Library Name:  SMIC_MEMORY
* Cell Name:    S55NLLGSPH_X512Y16D32_PCAP
* View Name:    schematic
************************************************************************

.SUBCKT S55NLLGSPH_X512Y16D32_PCAP B BX VDD VSS WL1
MTA1 BX VSS NET37 VSS STNPGHVT W=85.000N L=75.00N M=1
MTA0 B WL1 NET46 VSS STNPGHVT W=85.000N L=75.00N M=1
MTD1 NET37 NET46 VSS VSS STNPDHVT W=135.000N L=65.000N M=1
MTD0 NET46 NET37 VSS VSS STNPDHVT W=135.000N L=65.000N M=1
MTL1 NET37 NET46 VDD VDD STPLHVT W=85.000N L=65.000N M=1
MTL0 NET46 NET37 VDD VDD STPLHVT W=85.000N L=65.000N M=1
.ENDS

************************************************************************
* Library Name:  SMIC_MEMORY
* Cell Name:    S55NLLGSPH_X512Y16D32_PCAP4B
* View Name:    schematic
************************************************************************

.SUBCKT S55NLLGSPH_X512Y16D32_PCAP4B BX0 BX1 VDD VSS WL[3] WL[2] WL[1] WL[0]
XI5 NET29 BX1 VDD VSS WL[3] S55NLLGSPH_X512Y16D32_PCAP
XI4 NET29 NET32 VDD VSS WL[2] S55NLLGSPH_X512Y16D32_PCAP
XI3 NET39 NET32 VDD VSS WL[1] S55NLLGSPH_X512Y16D32_PCAP
XI2 NET39 BX0 VDD VSS WL[0] S55NLLGSPH_X512Y16D32_PCAP
.ENDS

************************************************************************
* Library Name:  SMIC_MEMORY
* Cell Name:    S55NLLGSPH_X512Y16D32_PCAP64B
* View Name:    schematic
************************************************************************

.SUBCKT S55NLLGSPH_X512Y16D32_PCAP64B B0 B1 VDD VSS WL[63] WL[62] WL[61] WL[60] WL[59] WL[58]
+WL[57] WL[56] WL[55] WL[54] WL[53] WL[52] WL[51] WL[50] WL[49] WL[48]
+WL[47] WL[46] WL[45] WL[44] WL[43] WL[42] WL[41] WL[40] WL[39] WL[38]
+WL[37] WL[36] WL[35] WL[34] WL[33] WL[32] WL[31] WL[30] WL[29] WL[28]
+WL[27] WL[26] WL[25] WL[24] WL[23] WL[22] WL[21] WL[20] WL[19] WL[18]
+WL[17] WL[16] WL[15] WL[14] WL[13] WL[12] WL[11] WL[10] WL[9] WL[8]
+WL[7] WL[6] WL[5] WL[4] WL[3] WL[2] WL[1] WL[0]
XI0 NET31 NET61 VDD VSS WL[7] WL[6] WL[5] WL[4] S55NLLGSPH_X512Y16D32_PCAP4B
XI1 B0 NET31 VDD VSS WL[3] WL[2] WL[1] WL[0] S55NLLGSPH_X512Y16D32_PCAP4B
XI2 NET01 NET32 VDD VSS WL[11] WL[10] WL[9] WL[8] S55NLLGSPH_X512Y16D32_PCAP4B
XI3 NET32 NET61 VDD VSS WL[15] WL[14] WL[13] WL[12] S55NLLGSPH_X512Y16D32_PCAP4B
XI4 NET33 NET62 VDD VSS WL[23] WL[22] WL[21] WL[20] S55NLLGSPH_X512Y16D32_PCAP4B
XI5 NET01 NET33 VDD VSS WL[19] WL[18] WL[17] WL[16] S55NLLGSPH_X512Y16D32_PCAP4B
XI6 NET02 NET34 VDD VSS WL[27] WL[26] WL[25] WL[24] S55NLLGSPH_X512Y16D32_PCAP4B
XI7 NET34 NET62 VDD VSS WL[31] WL[30] WL[29] WL[28] S55NLLGSPH_X512Y16D32_PCAP4B
XI8 NET35 NET63 VDD VSS WL[39] WL[38] WL[37] WL[36] S55NLLGSPH_X512Y16D32_PCAP4B
XI9 NET02 NET35 VDD VSS WL[35] WL[34] WL[33] WL[32] S55NLLGSPH_X512Y16D32_PCAP4B
XI10 NET03 NET36 VDD VSS WL[43] WL[42] WL[41] WL[40] S55NLLGSPH_X512Y16D32_PCAP4B
XI11 NET36 NET63 VDD VSS WL[47] WL[46] WL[45] WL[44] S55NLLGSPH_X512Y16D32_PCAP4B
XI12 NET37 NET64 VDD VSS WL[55] WL[54] WL[53] WL[52] S55NLLGSPH_X512Y16D32_PCAP4B
XI13 NET03 NET37 VDD VSS WL[51] WL[50] WL[49] WL[48] S55NLLGSPH_X512Y16D32_PCAP4B
XI14 B1 NET38 VDD VSS WL[59] WL[58] WL[57] WL[56] S55NLLGSPH_X512Y16D32_PCAP4B
XI15 NET38 NET64 VDD VSS WL[63] WL[62] WL[61] WL[60] S55NLLGSPH_X512Y16D32_PCAP4B
.ENDS

************************************************************************
* Library Name:  SMIC_MEMORY
* Cell Name:    S55NLLGSPH_X512Y16D32_PCAP_EDGE66B_RED
* View Name:    schematic
************************************************************************

.SUBCKT S55NLLGSPH_X512Y16D32_PCAP_EDGE66B_RED RWL0 RWL1 VDD VSS WL[63] WL[62] WL[61] WL[60] WL[59] WL[58]
+WL[57] WL[56] WL[55] WL[54] WL[53] WL[52] WL[51] WL[50] WL[49] WL[48]
+WL[47] WL[46] WL[45] WL[44] WL[43] WL[42] WL[41] WL[40] WL[39] WL[38]
+WL[37] WL[36] WL[35] WL[34] WL[33] WL[32] WL[31] WL[30] WL[29] WL[28]
+WL[27] WL[26] WL[25] WL[24] WL[23] WL[22] WL[21] WL[20] WL[19] WL[18]
+WL[17] WL[16] WL[15] WL[14] WL[13] WL[12] WL[11] WL[10] WL[9] WL[8]
+WL[7] WL[6] WL[5] WL[4] WL[3] WL[2] WL[1] WL[0]
XI0 NET44 VDD VSS S55NLLGSPH_X512Y16D32_BLSTRAP1
XI1 NET48 NET44 VDD VSS RWL0 S55NLLGSPH_X512Y16D32_PCAP
XI2 NET48 NET49 VDD VSS RWL1 S55NLLGSPH_X512Y16D32_PCAP
XI3 NET49 NET36 VDD VSS WL[63] WL[62] WL[61] WL[60] WL[59] WL[58]
+WL[57] WL[56] WL[55] WL[54] WL[53] WL[52] WL[51] WL[50] WL[49] WL[48]
+WL[47] WL[46] WL[45] WL[44] WL[43] WL[42] WL[41] WL[40] WL[39] WL[38]
+WL[37] WL[36] WL[35] WL[34] WL[33] WL[32] WL[31] WL[30] WL[29] WL[28]
+WL[27] WL[26] WL[25] WL[24] WL[23] WL[22] WL[21] WL[20] WL[19] WL[18]
+WL[17] WL[16] WL[15] WL[14] WL[13] WL[12] WL[11] WL[10] WL[9] WL[8]
+WL[7] WL[6] WL[5] WL[4] WL[3] WL[2] WL[1] WL[0] S55NLLGSPH_X512Y16D32_PCAP64B
XI4 NET36 VDD VSS S55NLLGSPH_X512Y16D32_BLSTRAP1
.ENDS

************************************************************************
* Library Name:  SMIC_MEMORY
* Cell Name:    S55NLLGSPH_X512Y16D32_PCAP4A
* View Name:    schematic
************************************************************************

.SUBCKT S55NLLGSPH_X512Y16D32_PCAP4A B0 B1 VDD VSS WL[3] WL[2] WL[1] WL[0]
XI5 B1 NET27 VDD VSS WL[3] S55NLLGSPH_X512Y16D32_PCAP
XI4 NET34 NET27 VDD VSS WL[2] S55NLLGSPH_X512Y16D32_PCAP
XI3 NET34 NET37 VDD VSS WL[1] S55NLLGSPH_X512Y16D32_PCAP
XI2 B0 NET37 VDD VSS WL[0] S55NLLGSPH_X512Y16D32_PCAP
.ENDS

************************************************************************
* Library Name:  SMIC_MEMORY
* Cell Name:    S55NLLGSPH_X512Y16D32_PCAP64A
* View Name:    schematic
************************************************************************

.SUBCKT S55NLLGSPH_X512Y16D32_PCAP64A B0 B1 VDD VSS WL[63] WL[62] WL[61] WL[60] WL[59] WL[58]
+WL[57] WL[56] WL[55] WL[54] WL[53] WL[52] WL[51] WL[50] WL[49] WL[48]
+WL[47] WL[46] WL[45] WL[44] WL[43] WL[42] WL[41] WL[40] WL[39] WL[38]
+WL[37] WL[36] WL[35] WL[34] WL[33] WL[32] WL[31] WL[30] WL[29] WL[28]
+WL[27] WL[26] WL[25] WL[24] WL[23] WL[22] WL[21] WL[20] WL[19] WL[18]
+WL[17] WL[16] WL[15] WL[14] WL[13] WL[12] WL[11] WL[10] WL[9] WL[8]
+WL[7] WL[6] WL[5] WL[4] WL[3] WL[2] WL[1] WL[0]
XI0 NET31 NET61 VDD VSS WL[7] WL[6] WL[5] WL[4] S55NLLGSPH_X512Y16D32_PCAP4A
XI1 B0 NET31 VDD VSS WL[3] WL[2] WL[1] WL[0] S55NLLGSPH_X512Y16D32_PCAP4A
XI2 NET01 NET32 VDD VSS WL[11] WL[10] WL[9] WL[8] S55NLLGSPH_X512Y16D32_PCAP4A
XI3 NET32 NET61 VDD VSS WL[15] WL[14] WL[13] WL[12] S55NLLGSPH_X512Y16D32_PCAP4A
XI4 NET33 NET62 VDD VSS WL[23] WL[22] WL[21] WL[20] S55NLLGSPH_X512Y16D32_PCAP4A
XI5 NET01 NET33 VDD VSS WL[19] WL[18] WL[17] WL[16] S55NLLGSPH_X512Y16D32_PCAP4A
XI6 NET02 NET34 VDD VSS WL[27] WL[26] WL[25] WL[24] S55NLLGSPH_X512Y16D32_PCAP4A
XI7 NET34 NET62 VDD VSS WL[31] WL[30] WL[29] WL[28] S55NLLGSPH_X512Y16D32_PCAP4A
XI8 NET35 NET63 VDD VSS WL[39] WL[38] WL[37] WL[36] S55NLLGSPH_X512Y16D32_PCAP4A
XI9 NET02 NET35 VDD VSS WL[35] WL[34] WL[33] WL[32] S55NLLGSPH_X512Y16D32_PCAP4A
XI10 NET03 NET36 VDD VSS WL[43] WL[42] WL[41] WL[40] S55NLLGSPH_X512Y16D32_PCAP4A
XI11 NET36 NET63 VDD VSS WL[47] WL[46] WL[45] WL[44] S55NLLGSPH_X512Y16D32_PCAP4A
XI12 NET37 NET64 VDD VSS WL[55] WL[54] WL[53] WL[52] S55NLLGSPH_X512Y16D32_PCAP4A
XI13 NET03 NET37 VDD VSS WL[51] WL[50] WL[49] WL[48] S55NLLGSPH_X512Y16D32_PCAP4A
XI14 B1 NET38 VDD VSS WL[59] WL[58] WL[57] WL[56] S55NLLGSPH_X512Y16D32_PCAP4A
XI15 NET38 NET64 VDD VSS WL[63] WL[62] WL[61] WL[60] S55NLLGSPH_X512Y16D32_PCAP4A
.ENDS

************************************************************************
* Library Name:  SMIC_MEMORY
* Cell Name:    S55NLLGSPH_X512Y16D32_PCAP_EDGE64A
* View Name:    schematic
************************************************************************

.SUBCKT S55NLLGSPH_X512Y16D32_PCAP_EDGE64A VDD VSS WL[63] WL[62] WL[61] WL[60] WL[59] WL[58] WL[57] WL[56]
+WL[55] WL[54] WL[53] WL[52] WL[51] WL[50] WL[49] WL[48] WL[47] WL[46]
+WL[45] WL[44] WL[43] WL[42] WL[41] WL[40] WL[39] WL[38] WL[37] WL[36]
+WL[35] WL[34] WL[33] WL[32] WL[31] WL[30] WL[29] WL[28] WL[27] WL[26]
+WL[25] WL[24] WL[23] WL[22] WL[21] WL[20] WL[19] WL[18] WL[17] WL[16]
+WL[15] WL[14] WL[13] WL[12] WL[11] WL[10] WL[9] WL[8] WL[7] WL[6]
+WL[5] WL[4] WL[3] WL[2] WL[1] WL[0]
XI0 NET49 VDD VSS S55NLLGSPH_X512Y16D32_BLSTRAP1
XI1 NET49 NET36 VDD VSS WL[63] WL[62] WL[61] WL[60] WL[59] WL[58]
+WL[57] WL[56] WL[55] WL[54] WL[53] WL[52] WL[51] WL[50] WL[49] WL[48]
+WL[47] WL[46] WL[45] WL[44] WL[43] WL[42] WL[41] WL[40] WL[39] WL[38]
+WL[37] WL[36] WL[35] WL[34] WL[33] WL[32] WL[31] WL[30] WL[29] WL[28]
+WL[27] WL[26] WL[25] WL[24] WL[23] WL[22] WL[21] WL[20] WL[19] WL[18]
+WL[17] WL[16] WL[15] WL[14] WL[13] WL[12] WL[11] WL[10] WL[9] WL[8]
+WL[7] WL[6] WL[5] WL[4] WL[3] WL[2] WL[1] WL[0] S55NLLGSPH_X512Y16D32_PCAP64A
XI2 NET36 VDD VSS S55NLLGSPH_X512Y16D32_BLSTRAP1
.ENDS

************************************************************************
* Library Name:  SMIC_MEMORY
* Cell Name:    S55NLLGSPH_X512Y16D32_PCAP_EDGE64B
* View Name:    schematic
************************************************************************

.SUBCKT S55NLLGSPH_X512Y16D32_PCAP_EDGE64B VDD VSS WL[63] WL[62] WL[61] WL[60] WL[59] WL[58] WL[57] WL[56]
+WL[55] WL[54] WL[53] WL[52] WL[51] WL[50] WL[49] WL[48] WL[47] WL[46]
+WL[45] WL[44] WL[43] WL[42] WL[41] WL[40] WL[39] WL[38] WL[37] WL[36]
+WL[35] WL[34] WL[33] WL[32] WL[31] WL[30] WL[29] WL[28] WL[27] WL[26]
+WL[25] WL[24] WL[23] WL[22] WL[21] WL[20] WL[19] WL[18] WL[17] WL[16]
+WL[15] WL[14] WL[13] WL[12] WL[11] WL[10] WL[9] WL[8] WL[7] WL[6]
+WL[5] WL[4] WL[3] WL[2] WL[1] WL[0]
XI0 NET49 VDD VSS S55NLLGSPH_X512Y16D32_BLSTRAP1
XI1 NET49 NET36 VDD VSS WL[63] WL[62] WL[61] WL[60] WL[59] WL[58]
+WL[57] WL[56] WL[55] WL[54] WL[53] WL[52] WL[51] WL[50] WL[49] WL[48]
+WL[47] WL[46] WL[45] WL[44] WL[43] WL[42] WL[41] WL[40] WL[39] WL[38]
+WL[37] WL[36] WL[35] WL[34] WL[33] WL[32] WL[31] WL[30] WL[29] WL[28]
+WL[27] WL[26] WL[25] WL[24] WL[23] WL[22] WL[21] WL[20] WL[19] WL[18]
+WL[17] WL[16] WL[15] WL[14] WL[13] WL[12] WL[11] WL[10] WL[9] WL[8]
+WL[7] WL[6] WL[5] WL[4] WL[3] WL[2] WL[1] WL[0] S55NLLGSPH_X512Y16D32_PCAP64B
XI2 NET36 VDD VSS S55NLLGSPH_X512Y16D32_BLSTRAP1
.ENDS

************************************************************************
* Library Name:  SMIC_MEMORY
* Cell Name:    S55NLLGSPH_X512Y16D32_PCAP4B_RDWL
* View Name:    schematic
************************************************************************

.SUBCKT S55NLLGSPH_X512Y16D32_PCAP4B_RDWL BX0 BX1 VDD VSS WL[0] WL[1] WL[2] WL[3]
XI5 NET29 BX1 VDD VSS WL[3] S55NLLGSPH_X512Y16D32_PCAP
XI4 NET29 NET32 VDD VSS WL[2] S55NLLGSPH_X512Y16D32_PCAP
XI3 NET39 NET32 VDD VSS WL[1] S55NLLGSPH_X512Y16D32_PCAP
XI2 NET39 BX0 VDD VSS WL[0] S55NLLGSPH_X512Y16D32_PCAP
.ENDS

************************************************************************
* Library Name:  SMIC_MEMORY
* Cell Name:    S55NLLGSPH_X512Y16D32_PCAP_EDGE68A_TOP
* View Name:    schematic
************************************************************************

.SUBCKT S55NLLGSPH_X512Y16D32_PCAP_EDGE68A_TOP STWL VDD VSS WL[63] WL[62] WL[61] WL[60] WL[59] WL[58] WL[57]
+WL[56] WL[55] WL[54] WL[53] WL[52] WL[51] WL[50] WL[49] WL[48] WL[47]
+WL[46] WL[45] WL[44] WL[43] WL[42] WL[41] WL[40] WL[39] WL[38] WL[37]
+WL[36] WL[35] WL[34] WL[33] WL[32] WL[31] WL[30] WL[29] WL[28] WL[27]
+WL[26] WL[25] WL[24] WL[23] WL[22] WL[21] WL[20] WL[19] WL[18] WL[17]
+WL[16] WL[15] WL[14] WL[13] WL[12] WL[11] WL[10] WL[9] WL[8] WL[7]
+WL[6] WL[5] WL[4] WL[3] WL[2] WL[1] WL[0]
XI0 NET49 VDD VSS S55NLLGSPH_X512Y16D32_BLSTRAP1
XI1 NET49 NET36 VDD VSS WL[63] WL[62] WL[61] WL[60] WL[59] WL[58]
+WL[57] WL[56] WL[55] WL[54] WL[53] WL[52] WL[51] WL[50] WL[49] WL[48]
+WL[47] WL[46] WL[45] WL[44] WL[43] WL[42] WL[41] WL[40] WL[39] WL[38]
+WL[37] WL[36] WL[35] WL[34] WL[33] WL[32] WL[31] WL[30] WL[29] WL[28]
+WL[27] WL[26] WL[25] WL[24] WL[23] WL[22] WL[21] WL[20] WL[19] WL[18]
+WL[17] WL[16] WL[15] WL[14] WL[13] WL[12] WL[11] WL[10] WL[9] WL[8]
+WL[7] WL[6] WL[5] WL[4] WL[3] WL[2] WL[1] WL[0] S55NLLGSPH_X512Y16D32_PCAP64A
XI2 NET36 NET40 VDD VSS VSS STWL STWL VSS S55NLLGSPH_X512Y16D32_PCAP4B_RDWL
XI3 NET40 VDD VSS S55NLLGSPH_X512Y16D32_BLSTRAP1
.ENDS

************************************************************************
* Library Name:  SMIC_MEMORY
* Cell Name:    S55NLLGSPH_X512Y16D32_PCAP_EDGE256_DOWN
* View Name:    schematic
************************************************************************

.SUBCKT S55NLLGSPH_X512Y16D32_PCAP_EDGE256_DOWN RWL0 RWL1 STWL VDD VSS WL[255] WL[254] WL[253] WL[252] WL[251]
+WL[250] WL[249] WL[248] WL[247] WL[246] WL[245] WL[244] WL[243] WL[242] WL[241]
+WL[240] WL[239] WL[238] WL[237] WL[236] WL[235] WL[234] WL[233] WL[232] WL[231]
+WL[230] WL[229] WL[228] WL[227] WL[226] WL[225] WL[224] WL[223] WL[222] WL[221]
+WL[220] WL[219] WL[218] WL[217] WL[216] WL[215] WL[214] WL[213] WL[212] WL[211]
+WL[210] WL[209] WL[208] WL[207] WL[206] WL[205] WL[204] WL[203] WL[202] WL[201]
+WL[200] WL[199] WL[198] WL[197] WL[196] WL[195] WL[194] WL[193] WL[192] WL[191]
+WL[190] WL[189] WL[188] WL[187] WL[186] WL[185] WL[184] WL[183] WL[182] WL[181]
+WL[180] WL[179] WL[178] WL[177] WL[176] WL[175] WL[174] WL[173] WL[172] WL[171]
+WL[170] WL[169] WL[168] WL[167] WL[166] WL[165] WL[164] WL[163] WL[162] WL[161]
+WL[160] WL[159] WL[158] WL[157] WL[156] WL[155] WL[154] WL[153] WL[152] WL[151]
+WL[150] WL[149] WL[148] WL[147] WL[146] WL[145] WL[144] WL[143] WL[142] WL[141]
+WL[140] WL[139] WL[138] WL[137] WL[136] WL[135] WL[134] WL[133] WL[132] WL[131]
+WL[130] WL[129] WL[128] WL[127] WL[126] WL[125] WL[124] WL[123] WL[122] WL[121]
+WL[120] WL[119] WL[118] WL[117] WL[116] WL[115] WL[114] WL[113] WL[112] WL[111]
+WL[110] WL[109] WL[108] WL[107] WL[106] WL[105] WL[104] WL[103] WL[102] WL[101]
+WL[100] WL[99] WL[98] WL[97] WL[96] WL[95] WL[94] WL[93] WL[92] WL[91]
+WL[90] WL[89] WL[88] WL[87] WL[86] WL[85] WL[84] WL[83] WL[82] WL[81]
+WL[80] WL[79] WL[78] WL[77] WL[76] WL[75] WL[74] WL[73] WL[72] WL[71]
+WL[70] WL[69] WL[68] WL[67] WL[66] WL[65] WL[64] WL[63] WL[62] WL[61]
+WL[60] WL[59] WL[58] WL[57] WL[56] WL[55] WL[54] WL[53] WL[52] WL[51]
+WL[50] WL[49] WL[48] WL[47] WL[46] WL[45] WL[44] WL[43] WL[42] WL[41]
+WL[40] WL[39] WL[38] WL[37] WL[36] WL[35] WL[34] WL[33] WL[32] WL[31]
+WL[30] WL[29] WL[28] WL[27] WL[26] WL[25] WL[24] WL[23] WL[22] WL[21]
+WL[20] WL[19] WL[18] WL[17] WL[16] WL[15] WL[14] WL[13] WL[12] WL[11]
+WL[10] WL[9] WL[8] WL[7] WL[6] WL[5] WL[4] WL[3] WL[2] WL[1]
+WL[0]
XI0 RWL0 RWL1 VDD VSS WL[63] WL[62] WL[61] WL[60] WL[59] WL[58]
+WL[57] WL[56] WL[55] WL[54] WL[53] WL[52] WL[51] WL[50] WL[49] WL[48]
+WL[47] WL[46] WL[45] WL[44] WL[43] WL[42] WL[41] WL[40] WL[39] WL[38]
+WL[37] WL[36] WL[35] WL[34] WL[33] WL[32] WL[31] WL[30] WL[29] WL[28]
+WL[27] WL[26] WL[25] WL[24] WL[23] WL[22] WL[21] WL[20] WL[19] WL[18]
+WL[17] WL[16] WL[15] WL[14] WL[13] WL[12] WL[11] WL[10] WL[9] WL[8]
+WL[7] WL[6] WL[5] WL[4] WL[3] WL[2] WL[1] WL[0] S55NLLGSPH_X512Y16D32_PCAP_EDGE66B_RED
XI1 VDD VSS WL[127] WL[126] WL[125] WL[124] WL[123] WL[122] WL[121] WL[120]
+WL[119] WL[118] WL[117] WL[116] WL[115] WL[114] WL[113] WL[112] WL[111] WL[110]
+WL[109] WL[108] WL[107] WL[106] WL[105] WL[104] WL[103] WL[102] WL[101] WL[100]
+WL[99] WL[98] WL[97] WL[96] WL[95] WL[94] WL[93] WL[92] WL[91] WL[90]
+WL[89] WL[88] WL[87] WL[86] WL[85] WL[84] WL[83] WL[82] WL[81] WL[80]
+WL[79] WL[78] WL[77] WL[76] WL[75] WL[74] WL[73] WL[72] WL[71] WL[70]
+WL[69] WL[68] WL[67] WL[66] WL[65] WL[64] S55NLLGSPH_X512Y16D32_PCAP_EDGE64A
XI2 VDD VSS WL[191] WL[190] WL[189] WL[188] WL[187] WL[186] WL[185] WL[184]
+WL[183] WL[182] WL[181] WL[180] WL[179] WL[178] WL[177] WL[176] WL[175] WL[174]
+WL[173] WL[172] WL[171] WL[170] WL[169] WL[168] WL[167] WL[166] WL[165] WL[164]
+WL[163] WL[162] WL[161] WL[160] WL[159] WL[158] WL[157] WL[156] WL[155] WL[154]
+WL[153] WL[152] WL[151] WL[150] WL[149] WL[148] WL[147] WL[146] WL[145] WL[144]
+WL[143] WL[142] WL[141] WL[140] WL[139] WL[138] WL[137] WL[136] WL[135] WL[134]
+WL[133] WL[132] WL[131] WL[130] WL[129] WL[128] S55NLLGSPH_X512Y16D32_PCAP_EDGE64B
XI3 STWL VDD VSS WL[255] WL[254] WL[253] WL[252] WL[251] WL[250] WL[249]
+WL[248] WL[247] WL[246] WL[245] WL[244] WL[243] WL[242] WL[241] WL[240] WL[239]
+WL[238] WL[237] WL[236] WL[235] WL[234] WL[233] WL[232] WL[231] WL[230] WL[229]
+WL[228] WL[227] WL[226] WL[225] WL[224] WL[223] WL[222] WL[221] WL[220] WL[219]
+WL[218] WL[217] WL[216] WL[215] WL[214] WL[213] WL[212] WL[211] WL[210] WL[209]
+WL[208] WL[207] WL[206] WL[205] WL[204] WL[203] WL[202] WL[201] WL[200] WL[199]
+WL[198] WL[197] WL[196] WL[195] WL[194] WL[193] WL[192] S55NLLGSPH_X512Y16D32_PCAP_EDGE68A_TOP
.ENDS

************************************************************************
* Library Name:  SMIC_MEMORY
* Cell Name:    S55NLLGSPH_X512Y16D32_BITCELL_HSSPH_HVT525
* View Name:    schematic
************************************************************************

.SUBCKT S55NLLGSPH_X512Y16D32_BITCELL_HSSPH_HVT525 B BX VDD VSS WL1
MM2 BX WL1 BCN VSS STNPGHVT W=85.000N L=75.00N M=1
MM3 B WL1 BC VSS STNPGHVT W=85.000N L=75.00N M=1
MM0 BCN BC VSS VSS STNPDHVT W=135.00N L=65.00N M=1
MM1 BC BCN VSS VSS STNPDHVT W=135.00N L=65.00N M=1
MM5 BCN BC VDD VDD STPLHVT W=85.000N L=65.00N M=1
MM6 BC BCN VDD VDD STPLHVT W=85.000N L=65.00N M=1
.ENDS

************************************************************************
* Library Name:  SMIC_MEMORY
* Cell Name:    S55NLLGSPH_X512Y16D32_BITCELL2X2
* View Name:    schematic
************************************************************************

.SUBCKT S55NLLGSPH_X512Y16D32_BITCELL2X2 B[1] B[0] BX[1] BX[0] VDD VSS WL[1] WL[0]
XI8 B[1] BX[1] VDD VSS WL[1] S55NLLGSPH_X512Y16D32_BITCELL_HSSPH_HVT525
XI9 B[0] BX[0] VDD VSS WL[1] S55NLLGSPH_X512Y16D32_BITCELL_HSSPH_HVT525
XI7 B[1] BX[1] VDD VSS WL[0] S55NLLGSPH_X512Y16D32_BITCELL_HSSPH_HVT525
XI5 B[0] BX[0] VDD VSS WL[0] S55NLLGSPH_X512Y16D32_BITCELL_HSSPH_HVT525
.ENDS

************************************************************************
* Library Name:  SMIC_MEMORY
* Cell Name:    S55NLLGSPH_X512Y16D32_BITCELLREDUNDANCE2X2
* View Name:    schematic
************************************************************************

.SUBCKT S55NLLGSPH_X512Y16D32_BITCELLREDUNDANCE2X2 B[1] B[0] BX[1] BX[0] RWL[0] RWL[1] VDD VSS
XI8 B[1] BX[1] VDD VSS RWL[1] S55NLLGSPH_X512Y16D32_BITCELL_HSSPH_HVT525
XI9 B[0] BX[0] VDD VSS RWL[1] S55NLLGSPH_X512Y16D32_BITCELL_HSSPH_HVT525
XI7 B[1] BX[1] VDD VSS RWL[0] S55NLLGSPH_X512Y16D32_BITCELL_HSSPH_HVT525
XI5 B[0] BX[0] VDD VSS RWL[0] S55NLLGSPH_X512Y16D32_BITCELL_HSSPH_HVT525
.ENDS

************************************************************************
* Library Name:  SMIC_MEMORY
* Cell Name:    S55NLLGSPH_X512Y16D32_BITCELL66X2A_RED
* View Name:    schematic
************************************************************************

.SUBCKT S55NLLGSPH_X512Y16D32_BITCELL66X2A_RED BL[1] BL[0] BLX[1] BLX[0] RWL[0] RWL[1] VDD VSS WL[63] WL[62]
+WL[61] WL[60] WL[59] WL[58] WL[57] WL[56] WL[55] WL[54] WL[53] WL[52]
+WL[51] WL[50] WL[49] WL[48] WL[47] WL[46] WL[45] WL[44] WL[43] WL[42]
+WL[41] WL[40] WL[39] WL[38] WL[37] WL[36] WL[35] WL[34] WL[33] WL[32]
+WL[31] WL[30] WL[29] WL[28] WL[27] WL[26] WL[25] WL[24] WL[23] WL[22]
+WL[21] WL[20] WL[19] WL[18] WL[17] WL[16] WL[15] WL[14] WL[13] WL[12]
+WL[11] WL[10] WL[9] WL[8] WL[7] WL[6] WL[5] WL[4] WL[3] WL[2]
+WL[1] WL[0]
XI0 BLX[1] VDD VSS S55NLLGSPH_X512Y16D32_BLSTRAP1
XI1 BLX[0] VDD VSS S55NLLGSPH_X512Y16D32_BLSTRAP1
XI2 BLX[1] VDD VSS S55NLLGSPH_X512Y16D32_BLSTRAP1
XI3 BLX[0] VDD VSS S55NLLGSPH_X512Y16D32_BLSTRAP1
XI4 BL[1] BL[0] BLX[1] BLX[0] VDD VSS WL[1] WL[0] S55NLLGSPH_X512Y16D32_BITCELL2X2
XI5 BL[1] BL[0] BLX[1] BLX[0] VDD VSS WL[3] WL[2] S55NLLGSPH_X512Y16D32_BITCELL2X2
XI6 BL[1] BL[0] BLX[1] BLX[0] VDD VSS WL[5] WL[4] S55NLLGSPH_X512Y16D32_BITCELL2X2
XI7 BL[1] BL[0] BLX[1] BLX[0] VDD VSS WL[7] WL[6] S55NLLGSPH_X512Y16D32_BITCELL2X2
XI8 BL[1] BL[0] BLX[1] BLX[0] VDD VSS WL[9] WL[8] S55NLLGSPH_X512Y16D32_BITCELL2X2
XI9 BL[1] BL[0] BLX[1] BLX[0] VDD VSS WL[11] WL[10] S55NLLGSPH_X512Y16D32_BITCELL2X2
XI10 BL[1] BL[0] BLX[1] BLX[0] VDD VSS WL[13] WL[12] S55NLLGSPH_X512Y16D32_BITCELL2X2
XI11 BL[1] BL[0] BLX[1] BLX[0] VDD VSS WL[15] WL[14] S55NLLGSPH_X512Y16D32_BITCELL2X2
XI12 BL[1] BL[0] BLX[1] BLX[0] VDD VSS WL[17] WL[16] S55NLLGSPH_X512Y16D32_BITCELL2X2
XI13 BL[1] BL[0] BLX[1] BLX[0] VDD VSS WL[19] WL[18] S55NLLGSPH_X512Y16D32_BITCELL2X2
XI14 BL[1] BL[0] BLX[1] BLX[0] VDD VSS WL[21] WL[20] S55NLLGSPH_X512Y16D32_BITCELL2X2
XI15 BL[1] BL[0] BLX[1] BLX[0] VDD VSS WL[23] WL[22] S55NLLGSPH_X512Y16D32_BITCELL2X2
XI16 BL[1] BL[0] BLX[1] BLX[0] VDD VSS WL[25] WL[24] S55NLLGSPH_X512Y16D32_BITCELL2X2
XI17 BL[1] BL[0] BLX[1] BLX[0] VDD VSS WL[27] WL[26] S55NLLGSPH_X512Y16D32_BITCELL2X2
XI18 BL[1] BL[0] BLX[1] BLX[0] VDD VSS WL[29] WL[28] S55NLLGSPH_X512Y16D32_BITCELL2X2
XI19 BL[1] BL[0] BLX[1] BLX[0] VDD VSS WL[31] WL[30] S55NLLGSPH_X512Y16D32_BITCELL2X2
XI20 BL[1] BL[0] BLX[1] BLX[0] VDD VSS WL[33] WL[32] S55NLLGSPH_X512Y16D32_BITCELL2X2
XI21 BL[1] BL[0] BLX[1] BLX[0] VDD VSS WL[35] WL[34] S55NLLGSPH_X512Y16D32_BITCELL2X2
XI22 BL[1] BL[0] BLX[1] BLX[0] VDD VSS WL[37] WL[36] S55NLLGSPH_X512Y16D32_BITCELL2X2
XI23 BL[1] BL[0] BLX[1] BLX[0] VDD VSS WL[39] WL[38] S55NLLGSPH_X512Y16D32_BITCELL2X2
XI24 BL[1] BL[0] BLX[1] BLX[0] VDD VSS WL[41] WL[40] S55NLLGSPH_X512Y16D32_BITCELL2X2
XI25 BL[1] BL[0] BLX[1] BLX[0] VDD VSS WL[43] WL[42] S55NLLGSPH_X512Y16D32_BITCELL2X2
XI26 BL[1] BL[0] BLX[1] BLX[0] VDD VSS WL[45] WL[44] S55NLLGSPH_X512Y16D32_BITCELL2X2
XI27 BL[1] BL[0] BLX[1] BLX[0] VDD VSS WL[47] WL[46] S55NLLGSPH_X512Y16D32_BITCELL2X2
XI28 BL[1] BL[0] BLX[1] BLX[0] VDD VSS WL[49] WL[48] S55NLLGSPH_X512Y16D32_BITCELL2X2
XI29 BL[1] BL[0] BLX[1] BLX[0] VDD VSS WL[51] WL[50] S55NLLGSPH_X512Y16D32_BITCELL2X2
XI30 BL[1] BL[0] BLX[1] BLX[0] VDD VSS WL[53] WL[52] S55NLLGSPH_X512Y16D32_BITCELL2X2
XI31 BL[1] BL[0] BLX[1] BLX[0] VDD VSS WL[55] WL[54] S55NLLGSPH_X512Y16D32_BITCELL2X2
XI32 BL[1] BL[0] BLX[1] BLX[0] VDD VSS WL[57] WL[56] S55NLLGSPH_X512Y16D32_BITCELL2X2
XI33 BL[1] BL[0] BLX[1] BLX[0] VDD VSS WL[59] WL[58] S55NLLGSPH_X512Y16D32_BITCELL2X2
XI34 BL[1] BL[0] BLX[1] BLX[0] VDD VSS WL[61] WL[60] S55NLLGSPH_X512Y16D32_BITCELL2X2
XI35 BL[1] BL[0] BLX[1] BLX[0] VDD VSS WL[63] WL[62] S55NLLGSPH_X512Y16D32_BITCELL2X2
XI36 BL[1] BL[0] BLX[1] BLX[0] RWL[0] RWL[1] VDD VSS S55NLLGSPH_X512Y16D32_BITCELLREDUNDANCE2X2
.ENDS

************************************************************************
* Library Name:  SMIC_MEMORY
* Cell Name:    S55NLLGSPH_X512Y16D32_BITCELL64X2B
* View Name:    schematic
************************************************************************

.SUBCKT S55NLLGSPH_X512Y16D32_BITCELL64X2B BL[1] BL[0] BLX[1] BLX[0] VDD VSS WL[63] WL[62] WL[61] WL[60]
+WL[59] WL[58] WL[57] WL[56] WL[55] WL[54] WL[53] WL[52] WL[51] WL[50]
+WL[49] WL[48] WL[47] WL[46] WL[45] WL[44] WL[43] WL[42] WL[41] WL[40]
+WL[39] WL[38] WL[37] WL[36] WL[35] WL[34] WL[33] WL[32] WL[31] WL[30]
+WL[29] WL[28] WL[27] WL[26] WL[25] WL[24] WL[23] WL[22] WL[21] WL[20]
+WL[19] WL[18] WL[17] WL[16] WL[15] WL[14] WL[13] WL[12] WL[11] WL[10]
+WL[9] WL[8] WL[7] WL[6] WL[5] WL[4] WL[3] WL[2] WL[1] WL[0]
XI0 BL[1] VDD VSS S55NLLGSPH_X512Y16D32_BLSTRAP1
XI1 BL[0] VDD VSS S55NLLGSPH_X512Y16D32_BLSTRAP1
XI2 BL[1] VDD VSS S55NLLGSPH_X512Y16D32_BLSTRAP1
XI3 BL[0] VDD VSS S55NLLGSPH_X512Y16D32_BLSTRAP1
XI4 BL[1] BL[0] BLX[1] BLX[0] VDD VSS WL[1] WL[0] S55NLLGSPH_X512Y16D32_BITCELL2X2
XI5 BL[1] BL[0] BLX[1] BLX[0] VDD VSS WL[3] WL[2] S55NLLGSPH_X512Y16D32_BITCELL2X2
XI6 BL[1] BL[0] BLX[1] BLX[0] VDD VSS WL[5] WL[4] S55NLLGSPH_X512Y16D32_BITCELL2X2
XI7 BL[1] BL[0] BLX[1] BLX[0] VDD VSS WL[7] WL[6] S55NLLGSPH_X512Y16D32_BITCELL2X2
XI8 BL[1] BL[0] BLX[1] BLX[0] VDD VSS WL[9] WL[8] S55NLLGSPH_X512Y16D32_BITCELL2X2
XI9 BL[1] BL[0] BLX[1] BLX[0] VDD VSS WL[11] WL[10] S55NLLGSPH_X512Y16D32_BITCELL2X2
XI10 BL[1] BL[0] BLX[1] BLX[0] VDD VSS WL[13] WL[12] S55NLLGSPH_X512Y16D32_BITCELL2X2
XI11 BL[1] BL[0] BLX[1] BLX[0] VDD VSS WL[15] WL[14] S55NLLGSPH_X512Y16D32_BITCELL2X2
XI12 BL[1] BL[0] BLX[1] BLX[0] VDD VSS WL[17] WL[16] S55NLLGSPH_X512Y16D32_BITCELL2X2
XI13 BL[1] BL[0] BLX[1] BLX[0] VDD VSS WL[19] WL[18] S55NLLGSPH_X512Y16D32_BITCELL2X2
XI14 BL[1] BL[0] BLX[1] BLX[0] VDD VSS WL[21] WL[20] S55NLLGSPH_X512Y16D32_BITCELL2X2
XI15 BL[1] BL[0] BLX[1] BLX[0] VDD VSS WL[23] WL[22] S55NLLGSPH_X512Y16D32_BITCELL2X2
XI16 BL[1] BL[0] BLX[1] BLX[0] VDD VSS WL[25] WL[24] S55NLLGSPH_X512Y16D32_BITCELL2X2
XI17 BL[1] BL[0] BLX[1] BLX[0] VDD VSS WL[27] WL[26] S55NLLGSPH_X512Y16D32_BITCELL2X2
XI18 BL[1] BL[0] BLX[1] BLX[0] VDD VSS WL[29] WL[28] S55NLLGSPH_X512Y16D32_BITCELL2X2
XI19 BL[1] BL[0] BLX[1] BLX[0] VDD VSS WL[31] WL[30] S55NLLGSPH_X512Y16D32_BITCELL2X2
XI20 BL[1] BL[0] BLX[1] BLX[0] VDD VSS WL[33] WL[32] S55NLLGSPH_X512Y16D32_BITCELL2X2
XI21 BL[1] BL[0] BLX[1] BLX[0] VDD VSS WL[35] WL[34] S55NLLGSPH_X512Y16D32_BITCELL2X2
XI22 BL[1] BL[0] BLX[1] BLX[0] VDD VSS WL[37] WL[36] S55NLLGSPH_X512Y16D32_BITCELL2X2
XI23 BL[1] BL[0] BLX[1] BLX[0] VDD VSS WL[39] WL[38] S55NLLGSPH_X512Y16D32_BITCELL2X2
XI24 BL[1] BL[0] BLX[1] BLX[0] VDD VSS WL[41] WL[40] S55NLLGSPH_X512Y16D32_BITCELL2X2
XI25 BL[1] BL[0] BLX[1] BLX[0] VDD VSS WL[43] WL[42] S55NLLGSPH_X512Y16D32_BITCELL2X2
XI26 BL[1] BL[0] BLX[1] BLX[0] VDD VSS WL[45] WL[44] S55NLLGSPH_X512Y16D32_BITCELL2X2
XI27 BL[1] BL[0] BLX[1] BLX[0] VDD VSS WL[47] WL[46] S55NLLGSPH_X512Y16D32_BITCELL2X2
XI28 BL[1] BL[0] BLX[1] BLX[0] VDD VSS WL[49] WL[48] S55NLLGSPH_X512Y16D32_BITCELL2X2
XI29 BL[1] BL[0] BLX[1] BLX[0] VDD VSS WL[51] WL[50] S55NLLGSPH_X512Y16D32_BITCELL2X2
XI30 BL[1] BL[0] BLX[1] BLX[0] VDD VSS WL[53] WL[52] S55NLLGSPH_X512Y16D32_BITCELL2X2
XI31 BL[1] BL[0] BLX[1] BLX[0] VDD VSS WL[55] WL[54] S55NLLGSPH_X512Y16D32_BITCELL2X2
XI32 BL[1] BL[0] BLX[1] BLX[0] VDD VSS WL[57] WL[56] S55NLLGSPH_X512Y16D32_BITCELL2X2
XI33 BL[1] BL[0] BLX[1] BLX[0] VDD VSS WL[59] WL[58] S55NLLGSPH_X512Y16D32_BITCELL2X2
XI34 BL[1] BL[0] BLX[1] BLX[0] VDD VSS WL[61] WL[60] S55NLLGSPH_X512Y16D32_BITCELL2X2
XI35 BL[1] BL[0] BLX[1] BLX[0] VDD VSS WL[63] WL[62] S55NLLGSPH_X512Y16D32_BITCELL2X2
.ENDS

************************************************************************
* Library Name:  SMIC_MEMORY
* Cell Name:    S55NLLGSPH_X512Y16D32_BITCELL64X2A
* View Name:    schematic
************************************************************************

.SUBCKT S55NLLGSPH_X512Y16D32_BITCELL64X2A BL[1] BL[0] BLX[1] BLX[0] VDD VSS WL[63] WL[62] WL[61] WL[60]
+WL[59] WL[58] WL[57] WL[56] WL[55] WL[54] WL[53] WL[52] WL[51] WL[50]
+WL[49] WL[48] WL[47] WL[46] WL[45] WL[44] WL[43] WL[42] WL[41] WL[40]
+WL[39] WL[38] WL[37] WL[36] WL[35] WL[34] WL[33] WL[32] WL[31] WL[30]
+WL[29] WL[28] WL[27] WL[26] WL[25] WL[24] WL[23] WL[22] WL[21] WL[20]
+WL[19] WL[18] WL[17] WL[16] WL[15] WL[14] WL[13] WL[12] WL[11] WL[10]
+WL[9] WL[8] WL[7] WL[6] WL[5] WL[4] WL[3] WL[2] WL[1] WL[0]
XI0 BLX[1] VDD VSS S55NLLGSPH_X512Y16D32_BLSTRAP1
XI1 BLX[0] VDD VSS S55NLLGSPH_X512Y16D32_BLSTRAP1
XI2 BLX[1] VDD VSS S55NLLGSPH_X512Y16D32_BLSTRAP1
XI3 BLX[0] VDD VSS S55NLLGSPH_X512Y16D32_BLSTRAP1
XI4 BL[1] BL[0] BLX[1] BLX[0] VDD VSS WL[1] WL[0] S55NLLGSPH_X512Y16D32_BITCELL2X2
XI5 BL[1] BL[0] BLX[1] BLX[0] VDD VSS WL[3] WL[2] S55NLLGSPH_X512Y16D32_BITCELL2X2
XI6 BL[1] BL[0] BLX[1] BLX[0] VDD VSS WL[5] WL[4] S55NLLGSPH_X512Y16D32_BITCELL2X2
XI7 BL[1] BL[0] BLX[1] BLX[0] VDD VSS WL[7] WL[6] S55NLLGSPH_X512Y16D32_BITCELL2X2
XI8 BL[1] BL[0] BLX[1] BLX[0] VDD VSS WL[9] WL[8] S55NLLGSPH_X512Y16D32_BITCELL2X2
XI9 BL[1] BL[0] BLX[1] BLX[0] VDD VSS WL[11] WL[10] S55NLLGSPH_X512Y16D32_BITCELL2X2
XI10 BL[1] BL[0] BLX[1] BLX[0] VDD VSS WL[13] WL[12] S55NLLGSPH_X512Y16D32_BITCELL2X2
XI11 BL[1] BL[0] BLX[1] BLX[0] VDD VSS WL[15] WL[14] S55NLLGSPH_X512Y16D32_BITCELL2X2
XI12 BL[1] BL[0] BLX[1] BLX[0] VDD VSS WL[17] WL[16] S55NLLGSPH_X512Y16D32_BITCELL2X2
XI13 BL[1] BL[0] BLX[1] BLX[0] VDD VSS WL[19] WL[18] S55NLLGSPH_X512Y16D32_BITCELL2X2
XI14 BL[1] BL[0] BLX[1] BLX[0] VDD VSS WL[21] WL[20] S55NLLGSPH_X512Y16D32_BITCELL2X2
XI15 BL[1] BL[0] BLX[1] BLX[0] VDD VSS WL[23] WL[22] S55NLLGSPH_X512Y16D32_BITCELL2X2
XI16 BL[1] BL[0] BLX[1] BLX[0] VDD VSS WL[25] WL[24] S55NLLGSPH_X512Y16D32_BITCELL2X2
XI17 BL[1] BL[0] BLX[1] BLX[0] VDD VSS WL[27] WL[26] S55NLLGSPH_X512Y16D32_BITCELL2X2
XI18 BL[1] BL[0] BLX[1] BLX[0] VDD VSS WL[29] WL[28] S55NLLGSPH_X512Y16D32_BITCELL2X2
XI19 BL[1] BL[0] BLX[1] BLX[0] VDD VSS WL[31] WL[30] S55NLLGSPH_X512Y16D32_BITCELL2X2
XI20 BL[1] BL[0] BLX[1] BLX[0] VDD VSS WL[33] WL[32] S55NLLGSPH_X512Y16D32_BITCELL2X2
XI21 BL[1] BL[0] BLX[1] BLX[0] VDD VSS WL[35] WL[34] S55NLLGSPH_X512Y16D32_BITCELL2X2
XI22 BL[1] BL[0] BLX[1] BLX[0] VDD VSS WL[37] WL[36] S55NLLGSPH_X512Y16D32_BITCELL2X2
XI23 BL[1] BL[0] BLX[1] BLX[0] VDD VSS WL[39] WL[38] S55NLLGSPH_X512Y16D32_BITCELL2X2
XI24 BL[1] BL[0] BLX[1] BLX[0] VDD VSS WL[41] WL[40] S55NLLGSPH_X512Y16D32_BITCELL2X2
XI25 BL[1] BL[0] BLX[1] BLX[0] VDD VSS WL[43] WL[42] S55NLLGSPH_X512Y16D32_BITCELL2X2
XI26 BL[1] BL[0] BLX[1] BLX[0] VDD VSS WL[45] WL[44] S55NLLGSPH_X512Y16D32_BITCELL2X2
XI27 BL[1] BL[0] BLX[1] BLX[0] VDD VSS WL[47] WL[46] S55NLLGSPH_X512Y16D32_BITCELL2X2
XI28 BL[1] BL[0] BLX[1] BLX[0] VDD VSS WL[49] WL[48] S55NLLGSPH_X512Y16D32_BITCELL2X2